tests/data/power_flow/pandapower/components/asymmetric/pandapower-asymmetric-node/asym_output.json
{
  "line": [
    {
      "id": 3,
      "p_from": [
        0.22670671739888348,
        0.22670671739901477,
        0.22670671739901477
      ],
      "q_from": [
        -11545.53435272021,
        -11545.53435272021,
        -11545.53435272021
      ],
      "i_from": [
        1.9045192479331845,
        1.9045192479331845,
        1.9045192479331845
      ],
      "p_to": [
        5.580940243511732e-13,
        5.580940243519069e-13,
        5.580940243519069e-13
      ],
      "q_to": [
        1.4211301154478753e-08,
        1.4211301154478753e-08,
        1.4211301154478753e-08
      ],
      "i_to": [
        2.3441830843532963e-12,
        2.3441830843532963e-12,
        2.3441830843532963e-12
      ]
    }
  ],
  "node": [
    {
      "id": 1,
      "u_pu": [
        1.0,
        0.9999999999999999,
        0.9999999999999999
      ],
      "u": [
        6062.177826491071,
        6062.17782649107,
        6062.17782649107
      ],
      "u_angle": [
        0.0,
        -2.0943951023931953,
        2.0943951023931953
      ]
    },
    {
      "id": 2,
      "u_pu": [
        1.000031416142392,
        1.000031416142392,
        1.0000314161423918
      ],
      "u": [
        6062.368276732875,
        6062.368276732875,
        6062.368276732872
      ],
      "u_angle": [
        -3.9271141888959665e-05,
        -2.0944343735350843,
        2.094355831251306
      ]
    },
    {
      "id": 5,
      "u_pu": [
        0.0,
        0.0,
        0.0
      ],
      "u": [
        0.0,
        0.0,
        0.0
      ],
      "u_angle": [
        0.0,
        0.0,
        0.0
      ]
    }
  ]
}